LAMMPS (17 Apr 2024)
Loaded 1 plugins from G:\lammps\LAMMPS 64-bit 17Apr2024-MSMPI\plugins
variable init_tempareture equal 300.0
variable setted_tempareture equal 400.0
variable lattice_ensemble string nvt
variable lattice_steps equal 1000.0
variable heat_flux equal 5.0
variable heat_ensemble string nve
variable sim_steps equal 10000.0
variable vacancy equal 0
variable type_1 string Cu
variable potential_name string data/Cu.eam.alloy
variable lattice_x_max_1 equal 72.2
# 模型参数

# variable potential_name     string data/Cu.eam.alloy  # 势函数文件名

# variable type_1             string Cu                 # 所选元素

# variable init_tempareture   equal   300               # 体系初始初始温度

# variable setted_tempareture equal    300              # nvt弛豫下的设定温度

# variable heat_flux          equal    10               # 体系引入热流大小

# variable lattice_steps      equal    1000             # 弛豫步数

# variable lattice_ensemble   string     nvt            # 弛豫所选系综名称

# variable lattice_x_max_1 equal 36.1                   # 体系x最大值

# variable sim_steps          equal     1000            # 热导率nve模拟下的弛豫时间

units metal

boundary s p p

atom_style atomic

timestep 0.001

neighbor 2 bin

neigh_modify check no

# 体系模型读取

read_data data/lattice.lmp

Reading data file ...
  orthogonal box = (0 0 0) to (72.2 18.05 18.05)
  reading atoms ...
  2000 atoms

# 力场设置

# pair_style eam/alloy

pair_style eam/alloy

pair_coeff * * data/Cu.eam.alloy Cu

Reading eam/alloy potential file data/Cu.eam.alloy with DATE: 2024-05-28

# 能量最小化

variable lattice_min_steps equal 1000/10

min_style cg

minimize 0 0 100 100

Step          Temp          E_pair         E_mol          TotEng         Press          Volume
0   0             -7016.2801      0             -7016.2801      646.17982      22939.572
Loop time of 0.702083 on 1 procs for 50 steps with 2000 atoms

Minimization stats:
  Stopping criterion = max force evaluations
  Energy initial, next-to-last, final =
  Force two-norm initial, final = 0.7136695 0.00014500362
  Force max component initial, final = 0.058122708 7.4232258e-06
  Final line search alpha, max atom move = 1 7.4232258e-06
  Iterations, force evaluations = 50 100

reset_timestep 0

# 温度初始化

velocity all create 300 32133

# 弛豫

variable lattice_steps_thermo equal 1000/100

thermo 10

thermo_style custom step temp

variable result_iterate_step equal step

variable result_iterate_temp equal temp

fix 1 all nvt temp 300 400 0.1

variable lattice_steps_temp equal 1000/10

write_data data/lattice_final.lmp

System init for write_data ...

run 100

   Step          Temp
         0   300
        10   265.81203
        20   184.69998
        30   105.83287
        40   71.291341
        50   87.059446
        60   124.22658
        70   148.62916
        80   148.63767
        90   138.86451
       100   141.61655
Loop time of 0.646859 on 1 procs for 100 steps with 2000 atoms

write_data data/lattice_final.lmp

System init for write_data ...

run 100

   Step          Temp
       100   141.61655
       110   164.15241
       120   192.5476
       130   205.66434
       140   194.39063
       150   169.45354
       160   152.16921
       170   156.42102
       180   177.35643
       190   196.7154
       200   199.52735
Loop time of 0.639439 on 1 procs for 100 steps with 2000 atoms

write_data data/lattice_final.lmp

System init for write_data ...

run 100

   Step          Temp
       200   199.52735
       210   186.75874
       220   173.94211
       230   176.04346
       240   192.96235
       250   210.37106
       260   214.11333
       270   203.42121
       280   190.93396
       290   190.77803
       300   206.11889
Loop time of 0.638823 on 1 procs for 100 steps with 2000 atoms

write_data data/lattice_final.lmp

System init for write_data ...

run 100

   Step          Temp
       300   206.11889
       310   226.70906
       320   238.69824
       330   236.37042
       340   225.64458
       350   218.24182
       360   221.42684
       370   232.30782
       380   242.03414
       390   245.11418
       400   244.12395
Loop time of 0.639341 on 1 procs for 100 steps with 2000 atoms

write_data data/lattice_final.lmp

System init for write_data ...

run 100

   Step          Temp
       400   244.12395
       410   245.72716
       420   253.99356
       430   266.28334
       440   275.22511
       450   275.17546
       460   266.8609
       470   256.77821
       480   252.31755
       490   256.6656
       500   267.46266
Loop time of 0.634261 on 1 procs for 100 steps with 2000 atoms

write_data data/lattice_final.lmp

System init for write_data ...

run 100

   Step          Temp
       500   267.46266
       510   279.40164
       520   288.95519
       530   295.66116
       540   300.34188
       550   304.32921
       560   308.70471
       570   313.23535
       580   316.48474
       590   316.87935
       600   314.06726
Loop time of 0.631305 on 1 procs for 100 steps with 2000 atoms

write_data data/lattice_final.lmp

System init for write_data ...

run 100

   Step          Temp
       600   314.06726
       610   309.56507
       620   307.32466
       630   311.25265
       640   321.24364
       650   332.29463
       660   338.07096
       670   337.0115
       680   334.14695
       690   335.65444
       700   341.91951
Loop time of 0.630653 on 1 procs for 100 steps with 2000 atoms

write_data data/lattice_final.lmp

System init for write_data ...

run 100

   Step          Temp
       700   341.91951
       710   346.8107
       720   345.90845
       730   341.70954
       740   340.12801
       750   345.01127
       760   355.21157
       770   366.30341
       780   374.04174
       790   376.52051
       800   374.99561
Loop time of 0.63122 on 1 procs for 100 steps with 2000 atoms

write_data data/lattice_final.lmp

System init for write_data ...

run 100

   Step          Temp
       800   374.99561
       810   372.04697
       820   370.28063
       830   370.65108
       840   371.34871
       850   369.99405
       860   366.02717
       870   361.86544
       880   360.5288
       890   361.72947
       900   362.55835
Loop time of 0.62713 on 1 procs for 100 steps with 2000 atoms

write_data data/lattice_final.lmp

System init for write_data ...

run 100

   Step          Temp
       900   362.55835
       910   360.92769
       920   358.26152
       930   357.4108
       940   358.63159
       950   360.0676
       960   359.6723
       970   356.6209
       980   351.66107
       990   346.35799
      1000   342.37527
Loop time of 0.622174 on 1 procs for 100 steps with 2000 atoms

write_data data/lattice_final.lmp

System init for write_data ...

unfix 1

unfix result_iterate

reset_timestep 0

# 热导率计算

# 设置热源、冷源区域

# 换区域

variable lattice_x_min_temp equal 72.2/10

variable lattice_x_min_temp_1 equal 7.22*2

variable lattice_x_max_temp_2 equal 72.2-7.22

variable lattice_x_max_temp_3 equal 72.2-2*7.22

region          hot block 7.22 14.44 INF INF INF INF

region          cold block 57.76 64.98 INF INF INF INF

# 计算冷热源区域温度

compute         Thot all temp/region hot

compute         Tcold all temp/region cold

# 设定nve系综

fix		iterate_heat all nve

# 热源处持续输入热量

fix             hot all heat 1 5 region hot

# 冷源处持续抽走热量

variable heat_flux_temp equal -5

fix             cold all heat 1 -5 region cold

# 设定热力学参数输出

#c_是提取compute的结果

# 运行1000步

variable sim_steps_temp equal 10000/10

compute		ke all ke/atom

# 根据原子动能计算原子温度

variable	temp atom c_ke/(1.5*8.625e-5)

compute         layers all chunk/atom bin/1d x lower 0.05 units reduced

variable sim_steps_thermo equal 10000/10

# 计算块内原子温度

fix		2 all ave/chunk 1 10 1000 layers v_temp file result_heat_1.txt

# 计算温差

variable        tdiff equal f_2[2][3]-f_2[19][3]

# 计算平均温差

fix             ave all ave/time 1 1 1000 v_tdiff ave running start 0

# 输出平均温差

thermo_style    custom step temp c_Thot c_Tcold v_tdiff

thermo	        1000

dump result_pdos all custom 10 result_pdos.txt id vx vy vz

run 1000

Step          Temp          c_Thot        c_Tcold        v_tdiff
0   342.37527      360.31811      360.91363      0
Loop time of 6.35765 on 1 procs for 1000 steps with 2000 atoms

run 1000

Step          Temp          c_Thot        c_Tcold        v_tdiff
1000   302.56274      370.37084      239.96808      73.807779
Loop time of 6.46694 on 1 procs for 1000 steps with 2000 atoms

run 1000

Step          Temp          c_Thot        c_Tcold        v_tdiff
2000   351.53227      450.46374      289.36303      144.60915
Loop time of 6.75457 on 1 procs for 1000 steps with 2000 atoms

run 1000

Step          Temp          c_Thot        c_Tcold        v_tdiff
3000   348.0066       475.10876      221.58288      212.85883
Loop time of 6.68608 on 1 procs for 1000 steps with 2000 atoms

run 1000

Step          Temp          c_Thot        c_Tcold        v_tdiff
4000   338.13848      497.53884      240.37548      173.51001
Loop time of 6.45797 on 1 procs for 1000 steps with 2000 atoms

run 1000

Step          Temp          c_Thot        c_Tcold        v_tdiff
5000   311.67906      437.79737      218.956        218.40744
Loop time of 6.61205 on 1 procs for 1000 steps with 2000 atoms

run 1000

Step          Temp          c_Thot        c_Tcold        v_tdiff
6000   340.84514      435.32004      223.14752      206.16181
Loop time of 6.77956 on 1 procs for 1000 steps with 2000 atoms

run 1000

Step          Temp          c_Thot        c_Tcold        v_tdiff
7000   351.49674      483.75439      222.23823      204.19044
Loop time of 6.57901 on 1 procs for 1000 steps with 2000 atoms

run 1000

Step          Temp          c_Thot        c_Tcold        v_tdiff
8000   323.21786      466.38281      214.87047      204.67833
Loop time of 6.49925 on 1 procs for 1000 steps with 2000 atoms

run 1000

Step          Temp          c_Thot        c_Tcold        v_tdiff
9000   321.97249      503.50207      195.47461      215.26957
Loop time of 6.68776 on 1 procs for 1000 steps with 2000 atoms
